# generated using pymatgen
data_FeBiO3
_symmetry_space_group_name_H-M   P4mm
_cell_length_a   3.75141500
_cell_length_b   3.75141500
_cell_length_c   4.87982800
_cell_angle_alpha   90.00000000
_cell_angle_beta   90.00000000
_cell_angle_gamma   90.00000000
_symmetry_Int_Tables_number   99
_chemical_formula_structural   FeBiO3
_chemical_formula_sum   'Fe1 Bi1 O3'
_cell_volume   68.67437820
_cell_formula_units_Z   1
loop_
 _symmetry_equiv_pos_site_id
 _symmetry_equiv_pos_as_xyz
  1  'x, y, z'
  2  '-y, x, z'
  3  '-x, -y, z'
  4  'y, -x, z'
  5  '-x, y, z'
  6  'y, x, z'
  7  'x, -y, z'
  8  '-y, -x, z'
loop_
 _atom_type_symbol
 _atom_type_oxidation_number
  Fe3+  3.0
  Bi3+  3.0
  O2-  -2.0
loop_
 _atom_site_type_symbol
 _atom_site_label
 _atom_site_symmetry_multiplicity
 _atom_site_fract_x
 _atom_site_fract_y
 _atom_site_fract_z
 _atom_site_occupancy
  Fe3+  Fe0  1  0.00000000  0.00000000  0.52383500  1
  Bi3+  Bi1  1  0.50000000  0.50000000  0.95129300  1
  O2-  O2  2  0.00000000  0.50000000  0.66958750  1
  O2-  O3  1  0.00000000  0.00000000  0.14369550  1
