# generated using pymatgen
data_TiPbO3
_symmetry_space_group_name_H-M   P4mm
_cell_length_a   3.87955190
_cell_length_b   3.87955190
_cell_length_c   4.28588762
_cell_angle_alpha   90.00000000
_cell_angle_beta   90.00000000
_cell_angle_gamma   90.00000000
_symmetry_Int_Tables_number   99
_chemical_formula_structural   TiPbO3
_chemical_formula_sum   'Ti1 Pb1 O3'
_cell_volume   64.50656432
_cell_formula_units_Z   1
loop_
 _symmetry_equiv_pos_site_id
 _symmetry_equiv_pos_as_xyz
  1  'x, y, z'
  2  '-y, x, z'
  3  '-x, -y, z'
  4  'y, -x, z'
  5  '-x, y, z'
  6  'y, x, z'
  7  'x, -y, z'
  8  '-y, -x, z'
loop_
 _atom_type_symbol
 _atom_type_oxidation_number
  Ti4+  4.0
  Pb2+  2.0
  O2-  -2.0
loop_
 _atom_site_type_symbol
 _atom_site_label
 _atom_site_symmetry_multiplicity
 _atom_site_fract_x
 _atom_site_fract_y
 _atom_site_fract_z
 _atom_site_occupancy
  Ti4+  Ti0  1  0.50000000  0.50000000  0.58251444  1
  Pb2+  Pb1  1  0.00000000  0.00000000  0.12358795  1
  O2-  O2  2  0.00000000  0.50000000  0.49415765  1
  O2-  O3  1  0.50000000  0.50000000  0.99578232  1
