# generated using pymatgen
data_TiSnHS3
_symmetry_space_group_name_H-M   'P 1'
_cell_length_a   11.70000000
_cell_length_b   14.04000000
_cell_length_c   3.90000000
_cell_angle_alpha   90.00000000
_cell_angle_beta   90.00000000
_cell_angle_gamma   90.00000000
_symmetry_Int_Tables_number   1
_chemical_formula_structural   TiSnHS3
_chemical_formula_sum   'Ti6 Sn6 H6 S18'
_cell_volume   640.64520000
_cell_formula_units_Z   6
loop_
 _symmetry_equiv_pos_site_id
 _symmetry_equiv_pos_as_xyz
  1  'x, y, z'
loop_
 _atom_site_type_symbol
 _atom_site_label
 _atom_site_symmetry_multiplicity
 _atom_site_fract_x
 _atom_site_fract_y
 _atom_site_fract_z
 _atom_site_occupancy
  Sn  Sn0  1  0.00000000  0.00000000  0.00000000  1.0
  Sn  Sn1  1  0.00000000  0.33333333  0.00000000  1.0
  Sn  Sn2  1  0.00000000  0.66666667  0.00000000  1.0
  Sn  Sn3  1  0.50000000  0.00000000  0.00000000  1.0
  Sn  Sn4  1  0.50000000  0.33333333  0.00000000  1.0
  Sn  Sn5  1  0.50000000  0.66666667  0.00000000  1.0
  Ti  Ti6  1  0.25000000  0.16666667  0.50000000  1
  Ti  Ti7  1  0.25000000  0.50000000  0.50000000  1
  Ti  Ti8  1  0.25000000  0.83333333  0.50000000  1
  Ti  Ti9  1  0.75000000  0.16666667  0.50000000  1
  Ti  Ti10  1  0.75000000  0.50000000  0.50000000  1
  Ti  Ti11  1  0.75000000  0.83333333  0.50000000  1
  S  S12  1  0.25000000  0.16666667  0.00000000  1.0
  S  S13  1  0.25000000  0.50000000  0.00000000  1.0
  S  S14  1  0.25000000  0.83333333  0.00000000  1.0
  S  S15  1  0.75000000  0.16666667  0.00000000  1.0
  S  S16  1  0.75000000  0.50000000  0.00000000  1.0
  S  S17  1  0.75000000  0.83333333  0.00000000  1.0
  S  S18  1  0.00000000  0.16666667  0.50000000  1.0
  S  S19  1  0.00000000  0.50000000  0.50000000  1.0
  S  S20  1  0.00000000  0.83333333  0.50000000  1.0
  S  S21  1  0.50000000  0.16666667  0.50000000  1.0
  S  S22  1  0.50000000  0.50000000  0.50000000  1.0
  S  S23  1  0.50000000  0.83333333  0.50000000  1.0
  H  H24  1  0.12500000  0.08333333  0.25000000  1
  H  H25  1  0.12500000  0.41666667  0.25000000  1
  H  H26  1  0.12500000  0.75000000  0.25000000  1
  H  H27  1  0.62500000  0.08333333  0.25000000  1
  H  H28  1  0.62500000  0.41666667  0.25000000  1
  H  H29  1  0.62500000  0.75000000  0.25000000  1
  S  S30  1  0.25000000  0.00000000  0.50000000  1.0
  S  S31  1  0.25000000  0.33333333  0.50000000  1.0
  S  S32  1  0.25000000  0.66666667  0.50000000  1.0
  S  S33  1  0.75000000  0.00000000  0.50000000  1.0
  S  S34  1  0.75000000  0.33333333  0.50000000  1.0
  S  S35  1  0.75000000  0.66666667  0.50000000  1.0
